REMARK VINA RESULT:      -7.2      1.511      2.475
REMARK  11 active torsions:
REMARK  status: ('A' for Active; 'I' for Inactive)
REMARK    1  A    between atoms: P_1  and  O_4 
REMARK    2  A    between atoms: P_1  and  O_2 
REMARK    3  A    between atoms: P_1  and  N_34 
REMARK    4  A    between atoms: O_2  and  C_28 
REMARK    5  A    between atoms: O_4  and  C_5 
REMARK    6  A    between atoms: C_5  and  C_7 
REMARK    7  A    between atoms: C_10  and  N_15 
REMARK    8  A    between atoms: C_20  and  C_21 
REMARK    9  A    between atoms: C_20  and  N_34 
REMARK   10  A    between atoms: C_21  and  O_24 
REMARK   11  A    between atoms: O_24  and  C_25 
ROOT
HETATM    1  P   UNK     0      20.335  59.054  59.629  0.00  0.00     0.458 P 
HETATM    2  O   UNK     0      19.588  58.288  58.521  0.00  0.00    -0.232 OA
ENDROOT
BRANCH   1   3
HETATM    3  O   UNK     0      19.007  59.288  60.380  0.00  0.00    -0.271 OA
BRANCH   3   4
HETATM    4  C   UNK     0      17.784  59.831  59.618  0.00  0.00     0.206 C 
BRANCH   4   5
HETATM    5  C   UNK     0      17.863  61.290  59.117  0.00  0.00     0.134 A 
HETATM    6  O   UNK     0      19.182  62.096  59.138  0.00  0.00    -0.291 OA
HETATM    7  C   UNK     0      18.885  63.494  58.571  0.00  0.00     0.178 A 
HETATM    8  C   UNK     0      17.395  63.561  58.200  0.00  0.00     0.232 A 
HETATM    9  C   UNK     0      16.765  62.193  58.540  0.00  0.00     0.166 A 
HETATM   10  F   UNK     0      16.035  64.066  57.703  0.00  0.00    -0.225 F 
HETATM   11  C   UNK     0      18.107  64.885  57.894  0.00  0.00     0.051 C 
HETATM   12  O   UNK     0      15.279  61.801  58.333  0.00  0.00    -0.190 OA
BRANCH   7  13
HETATM   13  N   UNK     0      20.138  64.412  58.536  0.00  0.00    -0.273 N 
HETATM   14  C   UNK     0      20.955  64.550  57.242  0.00  0.00     0.284 A 
HETATM   15  O   UNK     0      20.530  63.776  55.972  0.00  0.00    -0.149 OA
HETATM   16  N   UNK     0      22.196  65.461  57.211  0.00  0.00    -0.182 NA
HETATM   17  C   UNK     0      22.614  66.230  58.478  0.00  0.00     0.195 A 
HETATM   18  O   UNK     0      23.856  67.142  58.449  0.00  0.00    -0.174 OA
HETATM   19  C   UNK     0      21.798  66.092  59.774  0.00  0.00     0.099 A 
HETATM   20  C   UNK     0      20.555  65.180  59.803  0.00  0.00     0.120 A 
ENDBRANCH   7  13
ENDBRANCH   4   5
ENDBRANCH   3   4
ENDBRANCH   1   3
BRANCH   1  21
HETATM   21  O   UNK     0      21.095  59.820  60.733  0.00  0.00    -0.280 OA
BRANCH  21  22
HETATM   22  C   UNK     0      22.036  59.062  61.687  0.00  0.00     0.126 A 
HETATM   23  C   UNK     0      23.201  59.807  62.365  0.00  0.00     0.030 A 
HETATM   24  C   UNK     0      24.141  59.051  63.318  0.00  0.00     0.003 A 
HETATM   25  C   UNK     0      23.917  57.551  63.593  0.00  0.00     0.000 A 
HETATM   26  C   UNK     0      22.743  56.810  62.906  0.00  0.00     0.003 A 
HETATM   27  C   UNK     0      21.808  57.572  61.955  0.00  0.00     0.030 A 
ENDBRANCH  21  22
ENDBRANCH   1  21
BRANCH   1  28
HETATM   28  N   UNK     0      21.491  58.680  58.683  0.00  0.00    -0.177 NA
BRANCH  28  29
HETATM   29  C   UNK     0      22.327  59.787  58.016  0.00  0.00     0.114 C 
HETATM   30  C   UNK     0      21.748  60.583  56.832  0.00  0.00     0.057 C 
BRANCH  29  31
HETATM   31  C   UNK     0      23.744  60.099  58.533  0.00  0.00     0.242 C 
HETATM   32  O   UNK     0      24.025  61.431  59.254  0.00  0.00    -0.162 OA
BRANCH  31  33
HETATM   33  O   UNK     0      24.881  59.079  58.329  0.00  0.00    -0.311 OA
BRANCH  33  34
HETATM   34  C   UNK     0      25.126  57.980  59.379  0.00  0.00     0.124 C 
HETATM   35  C   UNK     0      24.295  56.684  59.346  0.00  0.00     0.033 C 
HETATM   36  C   UNK     0      26.203  58.178  60.463  0.00  0.00     0.033 C 
ENDBRANCH  33  34
ENDBRANCH  31  33
ENDBRANCH  29  31
ENDBRANCH  28  29
ENDBRANCH   1  28
TORSDOF 11
