REMARK VINA RESULT:      -6.9      3.135      6.285
REMARK  11 active torsions:
REMARK  status: ('A' for Active; 'I' for Inactive)
REMARK    1  A    between atoms: P_1  and  O_4 
REMARK    2  A    between atoms: P_1  and  O_2 
REMARK    3  A    between atoms: P_1  and  N_34 
REMARK    4  A    between atoms: O_2  and  C_28 
REMARK    5  A    between atoms: O_4  and  C_5 
REMARK    6  A    between atoms: C_5  and  C_7 
REMARK    7  A    between atoms: C_10  and  N_15 
REMARK    8  A    between atoms: C_20  and  C_21 
REMARK    9  A    between atoms: C_20  and  N_34 
REMARK   10  A    between atoms: C_21  and  O_24 
REMARK   11  A    between atoms: O_24  and  C_25 
ROOT
HETATM    1  P   UNK     0      20.229  60.478  58.744  0.00  0.00     0.458 P 
HETATM    2  O   UNK     0      21.071  59.431  57.990  0.00  0.00    -0.232 OA
ENDROOT
BRANCH   1   3
HETATM    3  O   UNK     0      21.188  61.598  58.288  0.00  0.00    -0.271 OA
BRANCH   3   4
HETATM    4  C   UNK     0      21.326  61.922  56.788  0.00  0.00     0.206 C 
BRANCH   4   5
HETATM    5  C   UNK     0      21.410  63.415  56.401  0.00  0.00     0.134 A 
HETATM    6  O   UNK     0      20.466  64.046  55.352  0.00  0.00    -0.291 OA
HETATM    7  C   UNK     0      20.836  65.534  55.225  0.00  0.00     0.178 A 
HETATM    8  C   UNK     0      21.999  65.828  56.186  0.00  0.00     0.232 A 
HETATM    9  C   UNK     0      22.352  64.513  56.914  0.00  0.00     0.166 A 
HETATM   10  F   UNK     0      23.105  66.555  56.962  0.00  0.00    -0.225 F 
HETATM   11  C   UNK     0      21.579  67.086  55.416  0.00  0.00     0.051 C 
HETATM   12  O   UNK     0      23.466  64.333  57.978  0.00  0.00    -0.190 OA
BRANCH   7  13
HETATM   13  N   UNK     0      19.956  66.291  54.193  0.00  0.00    -0.273 N 
HETATM   14  C   UNK     0      20.358  66.316  52.710  0.00  0.00     0.284 A 
HETATM   15  O   UNK     0      21.639  65.586  52.243  0.00  0.00    -0.149 OA
HETATM   16  N   UNK     0      19.482  67.067  51.690  0.00  0.00    -0.182 NA
HETATM   17  C   UNK     0      18.207  67.792  52.161  0.00  0.00     0.195 A 
HETATM   18  O   UNK     0      17.331  68.544  51.141  0.00  0.00    -0.174 OA
HETATM   19  C   UNK     0      17.805  67.768  53.645  0.00  0.00     0.099 A 
HETATM   20  C   UNK     0      18.682  67.015  54.665  0.00  0.00     0.120 A 
ENDBRANCH   7  13
ENDBRANCH   4   5
ENDBRANCH   3   4
ENDBRANCH   1   3
BRANCH   1  21
HETATM   21  O   UNK     0      19.376  61.517  59.503  0.00  0.00    -0.280 OA
BRANCH  21  22
HETATM   22  C   UNK     0      18.137  62.136  58.830  0.00  0.00     0.126 A 
HETATM   23  C   UNK     0      16.822  61.338  58.768  0.00  0.00     0.030 A 
HETATM   24  C   UNK     0      15.583  61.956  58.097  0.00  0.00     0.003 A 
HETATM   25  C   UNK     0      15.661  63.370  57.488  0.00  0.00     0.000 A 
HETATM   26  C   UNK     0      16.989  64.164  57.555  0.00  0.00     0.003 A 
HETATM   27  C   UNK     0      18.221  63.541  58.227  0.00  0.00     0.030 A 
ENDBRANCH  21  22
ENDBRANCH   1  21
BRANCH   1  28
HETATM   28  N   UNK     0      19.451  59.184  59.046  0.00  0.00    -0.177 NA
BRANCH  28  29
HETATM   29  C   UNK     0      19.901  58.269  60.201  0.00  0.00     0.114 C 
HETATM   30  C   UNK     0      19.467  56.793  60.228  0.00  0.00     0.057 C 
BRANCH  29  31
HETATM   31  C   UNK     0      20.785  58.833  61.329  0.00  0.00     0.242 C 
HETATM   32  O   UNK     0      20.144  59.608  62.496  0.00  0.00    -0.162 OA
BRANCH  31  33
HETATM   33  O   UNK     0      22.310  58.622  61.292  0.00  0.00    -0.311 OA
BRANCH  33  34
HETATM   34  C   UNK     0      22.895  57.208  61.461  0.00  0.00     0.124 C 
HETATM   35  C   UNK     0      23.215  56.353  60.220  0.00  0.00     0.033 C 
HETATM   36  C   UNK     0      23.162  56.649  62.871  0.00  0.00     0.033 C 
ENDBRANCH  33  34
ENDBRANCH  31  33
ENDBRANCH  29  31
ENDBRANCH  28  29
ENDBRANCH   1  28
TORSDOF 11
