REMARK VINA RESULT:      -6.9      3.839      8.045
REMARK  11 active torsions:
REMARK  status: ('A' for Active; 'I' for Inactive)
REMARK    1  A    between atoms: P_1  and  O_4 
REMARK    2  A    between atoms: P_1  and  O_2 
REMARK    3  A    between atoms: P_1  and  N_34 
REMARK    4  A    between atoms: O_2  and  C_28 
REMARK    5  A    between atoms: O_4  and  C_5 
REMARK    6  A    between atoms: C_5  and  C_7 
REMARK    7  A    between atoms: C_10  and  N_15 
REMARK    8  A    between atoms: C_20  and  C_21 
REMARK    9  A    between atoms: C_20  and  N_34 
REMARK   10  A    between atoms: C_21  and  O_24 
REMARK   11  A    between atoms: O_24  and  C_25 
ROOT
HETATM    1  P   UNK     0      23.065  66.743  58.707  0.00  0.00     0.458 P 
HETATM    2  O   UNK     0      22.619  67.818  59.716  0.00  0.00    -0.232 OA
ENDROOT
BRANCH   1   3
HETATM    3  O   UNK     0      22.569  65.630  59.653  0.00  0.00    -0.271 OA
BRANCH   3   4
HETATM    4  C   UNK     0      21.063  65.493  59.948  0.00  0.00     0.206 C 
BRANCH   4   5
HETATM    5  C   UNK     0      20.449  64.082  59.809  0.00  0.00     0.134 A 
HETATM    6  O   UNK     0      21.122  62.830  60.416  0.00  0.00    -0.291 OA
HETATM    7  C   UNK     0      20.238  61.616  60.083  0.00  0.00     0.178 A 
HETATM    8  C   UNK     0      19.025  62.106  59.277  0.00  0.00     0.232 A 
HETATM    9  C   UNK     0      19.159  63.635  59.108  0.00  0.00     0.166 A 
HETATM   10  F   UNK     0      17.712  62.133  58.484  0.00  0.00    -0.225 F 
HETATM   11  C   UNK     0      18.975  60.588  59.493  0.00  0.00     0.051 C 
HETATM   12  O   UNK     0      18.163  64.558  58.360  0.00  0.00    -0.190 OA
BRANCH   7  13
HETATM   13  N   UNK     0      20.806  60.282  60.641  0.00  0.00    -0.273 N 
HETATM   14  C   UNK     0      21.726  59.413  59.769  0.00  0.00     0.284 A 
HETATM   15  O   UNK     0      22.087  59.866  58.334  0.00  0.00    -0.149 OA
HETATM   16  N   UNK     0      22.287  58.091  60.325  0.00  0.00    -0.182 NA
HETATM   17  C   UNK     0      21.924  57.645  61.754  0.00  0.00     0.195 A 
HETATM   18  O   UNK     0      22.485  56.323  62.311  0.00  0.00    -0.174 OA
HETATM   19  C   UNK     0      21.004  58.515  62.627  0.00  0.00     0.099 A 
HETATM   20  C   UNK     0      20.443  59.837  62.069  0.00  0.00     0.120 A 
ENDBRANCH   7  13
ENDBRANCH   4   5
ENDBRANCH   3   4
ENDBRANCH   1   3
BRANCH   1  21
HETATM   21  O   UNK     0      23.517  65.676  57.687  0.00  0.00    -0.280 OA
BRANCH  21  22
HETATM   22  C   UNK     0      22.469  64.831  56.942  0.00  0.00     0.126 A 
HETATM   23  C   UNK     0      21.285  65.523  56.242  0.00  0.00     0.030 A 
HETATM   24  C   UNK     0      20.237  64.679  55.497  0.00  0.00     0.003 A 
HETATM   25  C   UNK     0      20.374  63.144  55.452  0.00  0.00     0.000 A 
HETATM   26  C   UNK     0      21.569  62.457  56.158  0.00  0.00     0.003 A 
HETATM   27  C   UNK     0      22.611  63.306  56.900  0.00  0.00     0.030 A 
ENDBRANCH  21  22
ENDBRANCH   1  21
BRANCH   1  28
HETATM   28  N   UNK     0      23.466  68.037  57.974  0.00  0.00    -0.177 NA
BRANCH  28  29
HETATM   29  C   UNK     0      24.765  68.769  58.361  0.00  0.00     0.114 C 
HETATM   30  C   UNK     0      26.091  67.991  58.448  0.00  0.00     0.057 C 
BRANCH  29  31
HETATM   31  C   UNK     0      24.737  70.279  58.661  0.00  0.00     0.242 C 
HETATM   32  O   UNK     0      24.915  71.295  57.517  0.00  0.00    -0.162 OA
BRANCH  31  33
HETATM   33  O   UNK     0      24.530  70.774  60.105  0.00  0.00    -0.311 OA
BRANCH  33  34
HETATM   34  C   UNK     0      23.343  71.695  60.440  0.00  0.00     0.124 C 
HETATM   35  C   UNK     0      23.460  73.215  60.216  0.00  0.00     0.033 C 
HETATM   36  C   UNK     0      22.039  71.098  61.001  0.00  0.00     0.033 C 
ENDBRANCH  33  34
ENDBRANCH  31  33
ENDBRANCH  29  31
ENDBRANCH  28  29
ENDBRANCH   1  28
TORSDOF 11
