REMARK VINA RESULT:      -6.7      3.538      6.700
REMARK  11 active torsions:
REMARK  status: ('A' for Active; 'I' for Inactive)
REMARK    1  A    between atoms: P_1  and  O_4 
REMARK    2  A    between atoms: P_1  and  O_2 
REMARK    3  A    between atoms: P_1  and  N_34 
REMARK    4  A    between atoms: O_2  and  C_28 
REMARK    5  A    between atoms: O_4  and  C_5 
REMARK    6  A    between atoms: C_5  and  C_7 
REMARK    7  A    between atoms: C_10  and  N_15 
REMARK    8  A    between atoms: C_20  and  C_21 
REMARK    9  A    between atoms: C_20  and  N_34 
REMARK   10  A    between atoms: C_21  and  O_24 
REMARK   11  A    between atoms: O_24  and  C_25 
ROOT
HETATM    1  P   UNK     0      19.991  63.413  58.786  0.00  0.00     0.458 P 
HETATM    2  O   UNK     0      20.100  64.817  59.410  0.00  0.00    -0.232 OA
ENDROOT
BRANCH   1   3
HETATM    3  O   UNK     0      21.529  63.323  58.688  0.00  0.00    -0.271 OA
BRANCH   3   4
HETATM    4  C   UNK     0      22.207  63.319  57.306  0.00  0.00     0.206 C 
BRANCH   4   5
HETATM    5  C   UNK     0      22.215  64.653  56.527  0.00  0.00     0.134 A 
HETATM    6  O   UNK     0      21.088  65.037  55.542  0.00  0.00    -0.291 OA
HETATM    7  C   UNK     0      21.427  66.419  54.958  0.00  0.00     0.178 A 
HETATM    8  C   UNK     0      22.753  66.893  55.574  0.00  0.00     0.232 A 
HETATM    9  C   UNK     0      23.239  65.797  56.546  0.00  0.00     0.166 A 
HETATM   10  F   UNK     0      23.987  67.740  55.910  0.00  0.00    -0.225 F 
HETATM   11  C   UNK     0      22.193  67.927  54.589  0.00  0.00     0.051 C 
HETATM   12  O   UNK     0      24.536  65.844  57.394  0.00  0.00    -0.190 OA
BRANCH   7  13
HETATM   13  N   UNK     0      20.364  66.925  53.944  0.00  0.00    -0.273 N 
HETATM   14  C   UNK     0      20.471  66.539  52.460  0.00  0.00     0.284 A 
HETATM   15  O   UNK     0      21.638  65.645  51.975  0.00  0.00    -0.149 OA
HETATM   16  N   UNK     0      19.416  67.042  51.459  0.00  0.00    -0.182 NA
HETATM   17  C   UNK     0      18.258  67.931  51.947  0.00  0.00     0.195 A 
HETATM   18  O   UNK     0      17.201  68.436  50.945  0.00  0.00    -0.174 OA
HETATM   19  C   UNK     0      18.150  68.318  53.432  0.00  0.00     0.099 A 
HETATM   20  C   UNK     0      19.207  67.813  54.434  0.00  0.00     0.120 A 
ENDBRANCH   7  13
ENDBRANCH   4   5
ENDBRANCH   3   4
ENDBRANCH   1   3
BRANCH   1  21
HETATM   21  O   UNK     0      19.868  62.006  58.162  0.00  0.00    -0.280 OA
BRANCH  21  22
HETATM   22  C   UNK     0      20.233  60.762  58.991  0.00  0.00     0.126 A 
HETATM   23  C   UNK     0      20.957  59.580  58.320  0.00  0.00     0.030 A 
HETATM   24  C   UNK     0      21.322  58.336  59.147  0.00  0.00     0.003 A 
HETATM   25  C   UNK     0      20.963  58.274  60.645  0.00  0.00     0.000 A 
HETATM   26  C   UNK     0      20.235  59.468  61.312  0.00  0.00     0.003 A 
HETATM   27  C   UNK     0      19.874  60.706  60.479  0.00  0.00     0.030 A 
ENDBRANCH  21  22
ENDBRANCH   1  21
BRANCH   1  28
HETATM   28  N   UNK     0      18.509  63.768  59.001  0.00  0.00    -0.177 NA
BRANCH  28  29
HETATM   29  C   UNK     0      17.609  64.074  57.789  0.00  0.00     0.114 C 
HETATM   30  C   UNK     0      18.076  65.071  56.714  0.00  0.00     0.057 C 
BRANCH  29  31
HETATM   31  C   UNK     0      16.239  63.382  57.654  0.00  0.00     0.242 C 
HETATM   32  O   UNK     0      16.131  61.853  57.806  0.00  0.00    -0.162 OA
BRANCH  31  33
HETATM   33  O   UNK     0      14.978  64.218  57.366  0.00  0.00    -0.311 OA
BRANCH  33  34
HETATM   34  C   UNK     0      14.439  64.328  55.928  0.00  0.00     0.124 C 
HETATM   35  C   UNK     0      15.147  65.240  54.908  0.00  0.00     0.033 C 
HETATM   36  C   UNK     0      13.192  63.527  55.509  0.00  0.00     0.033 C 
ENDBRANCH  33  34
ENDBRANCH  31  33
ENDBRANCH  29  31
ENDBRANCH  28  29
ENDBRANCH   1  28
TORSDOF 11
