REMARK VINA RESULT:      -6.7      1.927      4.030
REMARK  11 active torsions:
REMARK  status: ('A' for Active; 'I' for Inactive)
REMARK    1  A    between atoms: P_1  and  O_4 
REMARK    2  A    between atoms: P_1  and  O_2 
REMARK    3  A    between atoms: P_1  and  N_34 
REMARK    4  A    between atoms: O_2  and  C_28 
REMARK    5  A    between atoms: O_4  and  C_5 
REMARK    6  A    between atoms: C_5  and  C_7 
REMARK    7  A    between atoms: C_10  and  N_15 
REMARK    8  A    between atoms: C_20  and  C_21 
REMARK    9  A    between atoms: C_20  and  N_34 
REMARK   10  A    between atoms: C_21  and  O_24 
REMARK   11  A    between atoms: O_24  and  C_25 
ROOT
HETATM    1  P   UNK     0      18.835  59.588  59.413  0.00  0.00     0.458 P 
HETATM    2  O   UNK     0      18.006  60.015  60.640  0.00  0.00    -0.232 OA
ENDROOT
BRANCH   1   3
HETATM    3  O   UNK     0      18.123  60.648  58.547  0.00  0.00    -0.271 OA
BRANCH   3   4
HETATM    4  C   UNK     0      18.043  62.106  59.035  0.00  0.00     0.206 C 
BRANCH   4   5
HETATM    5  C   UNK     0      18.370  63.208  58.003  0.00  0.00     0.134 A 
HETATM    6  O   UNK     0      19.815  63.491  57.534  0.00  0.00    -0.291 OA
HETATM    7  C   UNK     0      19.759  64.642  56.515  0.00  0.00     0.178 A 
HETATM    8  C   UNK     0      18.293  65.073  56.350  0.00  0.00     0.232 A 
HETATM    9  C   UNK     0      17.435  64.182  57.274  0.00  0.00     0.166 A 
HETATM   10  F   UNK     0      17.030  65.807  55.883  0.00  0.00    -0.225 F 
HETATM   11  C   UNK     0      19.224  65.910  55.464  0.00  0.00     0.051 C 
HETATM   12  O   UNK     0      15.894  64.258  57.435  0.00  0.00    -0.190 OA
BRANCH   7  13
HETATM   13  N   UNK     0      21.158  65.029  55.961  0.00  0.00    -0.273 N 
HETATM   14  C   UNK     0      22.214  65.640  56.896  0.00  0.00     0.284 A 
HETATM   15  O   UNK     0      21.885  65.870  58.390  0.00  0.00    -0.149 OA
HETATM   16  N   UNK     0      23.599  66.022  56.342  0.00  0.00    -0.182 NA
HETATM   17  C   UNK     0      23.921  65.791  54.854  0.00  0.00     0.195 A 
HETATM   18  O   UNK     0      25.307  66.173  54.300  0.00  0.00    -0.174 OA
HETATM   19  C   UNK     0      22.865  65.180  53.919  0.00  0.00     0.099 A 
HETATM   20  C   UNK     0      21.479  64.797  54.474  0.00  0.00     0.120 A 
ENDBRANCH   7  13
ENDBRANCH   4   5
ENDBRANCH   3   4
ENDBRANCH   1   3
BRANCH   1  21
HETATM   21  O   UNK     0      19.672  59.150  58.192  0.00  0.00    -0.280 OA
BRANCH  21  22
HETATM   22  C   UNK     0      20.749  60.090  57.620  0.00  0.00     0.126 A 
HETATM   23  C   UNK     0      20.747  60.431  56.119  0.00  0.00     0.030 A 
HETATM   24  C   UNK     0      21.823  61.370  55.547  0.00  0.00     0.003 A 
HETATM   25  C   UNK     0      22.899  61.967  56.476  0.00  0.00     0.000 A 
HETATM   26  C   UNK     0      22.892  61.618  57.985  0.00  0.00     0.003 A 
HETATM   27  C   UNK     0      21.815  60.680  58.549  0.00  0.00     0.030 A 
ENDBRANCH  21  22
ENDBRANCH   1  21
BRANCH   1  28
HETATM   28  N   UNK     0      19.374  58.633  60.495  0.00  0.00    -0.177 NA
BRANCH  28  29
HETATM   29  C   UNK     0      20.164  57.376  60.085  0.00  0.00     0.114 C 
HETATM   30  C   UNK     0      19.432  56.173  59.464  0.00  0.00     0.057 C 
BRANCH  29  31
HETATM   31  C   UNK     0      21.689  57.324  60.298  0.00  0.00     0.242 C 
HETATM   32  O   UNK     0      22.617  56.946  59.128  0.00  0.00    -0.162 OA
BRANCH  31  33
HETATM   33  O   UNK     0      22.286  57.649  61.680  0.00  0.00    -0.311 OA
BRANCH  33  34
HETATM   34  C   UNK     0      22.661  59.100  62.034  0.00  0.00     0.124 C 
HETATM   35  C   UNK     0      21.726  59.943  62.921  0.00  0.00     0.033 C 
HETATM   36  C   UNK     0      23.972  59.708  61.500  0.00  0.00     0.033 C 
ENDBRANCH  33  34
ENDBRANCH  31  33
ENDBRANCH  29  31
ENDBRANCH  28  29
ENDBRANCH   1  28
TORSDOF 11
