REMARK VINA RESULT:      -7.0      1.069      1.567
REMARK  11 active torsions:
REMARK  status: ('A' for Active; 'I' for Inactive)
REMARK    1  A    between atoms: P_1  and  O_4 
REMARK    2  A    between atoms: P_1  and  O_2 
REMARK    3  A    between atoms: P_1  and  N_34 
REMARK    4  A    between atoms: O_2  and  C_28 
REMARK    5  A    between atoms: O_4  and  C_5 
REMARK    6  A    between atoms: C_5  and  C_7 
REMARK    7  A    between atoms: C_10  and  N_15 
REMARK    8  A    between atoms: C_20  and  C_21 
REMARK    9  A    between atoms: C_20  and  N_34 
REMARK   10  A    between atoms: C_21  and  O_24 
REMARK   11  A    between atoms: O_24  and  C_25 
ROOT
HETATM    1  P   UNK     0      20.215  58.530  60.119  0.00  0.00     0.458 P 
HETATM    2  O   UNK     0      20.141  59.026  58.662  0.00  0.00    -0.232 OA
ENDROOT
BRANCH   1   3
HETATM    3  O   UNK     0      19.256  59.654  60.564  0.00  0.00    -0.271 OA
BRANCH   3   4
HETATM    4  C   UNK     0      17.976  59.932  59.754  0.00  0.00     0.206 C 
BRANCH   4   5
HETATM    5  C   UNK     0      17.890  61.292  59.027  0.00  0.00     0.134 A 
HETATM    6  O   UNK     0      19.147  62.028  58.509  0.00  0.00    -0.291 OA
HETATM    7  C   UNK     0      18.683  63.337  57.847  0.00  0.00     0.178 A 
HETATM    8  C   UNK     0      17.152  63.416  57.950  0.00  0.00     0.232 A 
HETATM    9  C   UNK     0      16.663  62.147  58.683  0.00  0.00     0.166 A 
HETATM   10  F   UNK     0      15.702  63.903  57.826  0.00  0.00    -0.225 F 
HETATM   11  C   UNK     0      17.727  64.643  57.233  0.00  0.00     0.051 C 
HETATM   12  O   UNK     0      15.189  61.799  59.012  0.00  0.00    -0.190 OA
BRANCH   7  13
HETATM   13  N   UNK     0      19.859  64.178  57.280  0.00  0.00    -0.273 N 
HETATM   14  C   UNK     0      20.776  64.960  58.234  0.00  0.00     0.284 A 
HETATM   15  O   UNK     0      20.529  64.909  59.761  0.00  0.00    -0.149 OA
HETATM   16  N   UNK     0      21.941  65.793  57.668  0.00  0.00    -0.182 NA
HETATM   17  C   UNK     0      22.182  65.840  56.148  0.00  0.00     0.195 A 
HETATM   18  O   UNK     0      23.348  66.674  55.581  0.00  0.00    -0.174 OA
HETATM   19  C   UNK     0      21.265  65.059  55.193  0.00  0.00     0.099 A 
HETATM   20  C   UNK     0      20.099  64.225  55.761  0.00  0.00     0.120 A 
ENDBRANCH   7  13
ENDBRANCH   4   5
ENDBRANCH   3   4
ENDBRANCH   1   3
BRANCH   1  21
HETATM   21  O   UNK     0      20.298  58.023  61.575  0.00  0.00    -0.280 OA
BRANCH  21  22
HETATM   22  C   UNK     0      21.632  58.091  62.339  0.00  0.00     0.126 A 
HETATM   23  C   UNK     0      22.207  59.457  62.757  0.00  0.00     0.030 A 
HETATM   24  C   UNK     0      23.541  59.525  63.520  0.00  0.00     0.003 A 
HETATM   25  C   UNK     0      24.299  58.227  63.865  0.00  0.00     0.000 A 
HETATM   26  C   UNK     0      23.712  56.858  63.441  0.00  0.00     0.003 A 
HETATM   27  C   UNK     0      22.380  56.798  62.679  0.00  0.00     0.030 A 
ENDBRANCH  21  22
ENDBRANCH   1  21
BRANCH   1  28
HETATM   28  N   UNK     0      21.139  57.525  59.407  0.00  0.00    -0.177 NA
BRANCH  28  29
HETATM   29  C   UNK     0      22.628  57.862  59.201  0.00  0.00     0.114 C 
HETATM   30  C   UNK     0      23.702  56.786  59.441  0.00  0.00     0.057 C 
BRANCH  29  31
HETATM   31  C   UNK     0      23.041  59.277  58.754  0.00  0.00     0.242 C 
HETATM   32  O   UNK     0      23.402  60.342  59.806  0.00  0.00    -0.162 OA
BRANCH  31  33
HETATM   33  O   UNK     0      23.094  59.626  57.255  0.00  0.00    -0.311 OA
BRANCH  33  34
HETATM   34  C   UNK     0      22.422  60.912  56.740  0.00  0.00     0.124 C 
HETATM   35  C   UNK     0      23.020  62.288  57.091  0.00  0.00     0.033 C 
HETATM   36  C   UNK     0      21.151  60.824  55.875  0.00  0.00     0.033 C 
ENDBRANCH  33  34
ENDBRANCH  31  33
ENDBRANCH  29  31
ENDBRANCH  28  29
ENDBRANCH   1  28
TORSDOF 11
