REMARK VINA RESULT:      -6.7      2.630      4.740
REMARK  11 active torsions:
REMARK  status: ('A' for Active; 'I' for Inactive)
REMARK    1  A    between atoms: P_1  and  O_4 
REMARK    2  A    between atoms: P_1  and  O_2 
REMARK    3  A    between atoms: P_1  and  N_34 
REMARK    4  A    between atoms: O_2  and  C_28 
REMARK    5  A    between atoms: O_4  and  C_5 
REMARK    6  A    between atoms: C_5  and  C_7 
REMARK    7  A    between atoms: C_10  and  N_15 
REMARK    8  A    between atoms: C_20  and  C_21 
REMARK    9  A    between atoms: C_20  and  N_34 
REMARK   10  A    between atoms: C_21  and  O_24 
REMARK   11  A    between atoms: O_24  and  C_25 
ROOT
HETATM    1  P   UNK     0      21.426  58.615  59.860  0.00  0.00     0.458 P 
HETATM    2  O   UNK     0      20.602  58.526  61.159  0.00  0.00    -0.232 OA
ENDROOT
BRANCH   1   3
HETATM    3  O   UNK     0      20.130  58.610  59.022  0.00  0.00    -0.271 OA
BRANCH   3   4
HETATM    4  C   UNK     0      19.027  59.644  59.315  0.00  0.00     0.206 C 
BRANCH   4   5
HETATM    5  C   UNK     0      19.372  61.127  59.055  0.00  0.00     0.134 A 
HETATM    6  O   UNK     0      18.828  61.895  57.829  0.00  0.00    -0.291 OA
HETATM    7  C   UNK     0      19.374  63.331  57.897  0.00  0.00     0.178 A 
HETATM    8  C   UNK     0      20.250  63.458  59.153  0.00  0.00     0.232 A 
HETATM    9  C   UNK     0      20.246  62.090  59.869  0.00  0.00     0.166 A 
HETATM   10  F   UNK     0      21.169  64.027  60.242  0.00  0.00    -0.225 F 
HETATM   11  C   UNK     0      20.195  64.779  58.375  0.00  0.00     0.051 C 
HETATM   12  O   UNK     0      20.997  61.750  61.182  0.00  0.00    -0.190 OA
BRANCH   7  13
HETATM   13  N   UNK     0      18.898  64.216  56.712  0.00  0.00    -0.273 N 
HETATM   14  C   UNK     0      17.444  64.709  56.655  0.00  0.00     0.284 A 
HETATM   15  O   UNK     0      16.451  64.325  57.778  0.00  0.00    -0.149 OA
HETATM   16  N   UNK     0      16.976  65.586  55.479  0.00  0.00    -0.182 NA
HETATM   17  C   UNK     0      17.968  65.966  54.364  0.00  0.00     0.195 A 
HETATM   18  O   UNK     0      17.501  66.844  53.187  0.00  0.00    -0.174 OA
HETATM   19  C   UNK     0      19.424  65.473  54.420  0.00  0.00     0.099 A 
HETATM   20  C   UNK     0      19.890  64.595  55.598  0.00  0.00     0.120 A 
ENDBRANCH   7  13
ENDBRANCH   4   5
ENDBRANCH   3   4
ENDBRANCH   1   3
BRANCH   1  21
HETATM   21  O   UNK     0      22.263  58.704  58.566  0.00  0.00    -0.280 OA
BRANCH  21  22
HETATM   22  C   UNK     0      22.543  60.074  57.922  0.00  0.00     0.126 A 
HETATM   23  C   UNK     0      21.848  60.455  56.602  0.00  0.00     0.030 A 
HETATM   24  C   UNK     0      22.126  61.823  55.958  0.00  0.00     0.003 A 
HETATM   25  C   UNK     0      23.099  62.810  56.634  0.00  0.00     0.000 A 
HETATM   26  C   UNK     0      23.793  62.417  57.962  0.00  0.00     0.003 A 
HETATM   27  C   UNK     0      23.510  61.049  58.599  0.00  0.00     0.030 A 
ENDBRANCH  21  22
ENDBRANCH   1  21
BRANCH   1  28
HETATM   28  N   UNK     0      22.536  58.603  60.927  0.00  0.00    -0.177 NA
BRANCH  28  29
HETATM   29  C   UNK     0      23.622  57.510  60.894  0.00  0.00     0.114 C 
HETATM   30  C   UNK     0      23.278  56.069  61.310  0.00  0.00     0.057 C 
BRANCH  29  31
HETATM   31  C   UNK     0      25.053  57.861  60.444  0.00  0.00     0.242 C 
HETATM   32  O   UNK     0      25.652  57.192  59.193  0.00  0.00    -0.162 OA
BRANCH  31  33
HETATM   33  O   UNK     0      25.884  58.881  61.245  0.00  0.00    -0.311 OA
BRANCH  33  34
HETATM   34  C   UNK     0      26.178  58.633  62.736  0.00  0.00     0.124 C 
HETATM   35  C   UNK     0      26.505  57.212  63.231  0.00  0.00     0.033 C 
HETATM   36  C   UNK     0      26.144  59.807  63.733  0.00  0.00     0.033 C 
ENDBRANCH  33  34
ENDBRANCH  31  33
ENDBRANCH  29  31
ENDBRANCH  28  29
ENDBRANCH   1  28
TORSDOF 11
