MODEL 1
REMARK VINA RESULT:      -7.3      0.000      0.000
REMARK  11 active torsions:
REMARK  status: ('A' for Active; 'I' for Inactive)
REMARK    1  A    between atoms: P_1  and  O_4 
REMARK    2  A    between atoms: P_1  and  O_2 
REMARK    3  A    between atoms: P_1  and  N_34 
REMARK    4  A    between atoms: O_2  and  C_28 
REMARK    5  A    between atoms: O_4  and  C_5 
REMARK    6  A    between atoms: C_5  and  C_7 
REMARK    7  A    between atoms: C_10  and  N_15 
REMARK    8  A    between atoms: C_20  and  C_21 
REMARK    9  A    between atoms: C_20  and  N_34 
REMARK   10  A    between atoms: C_21  and  O_24 
REMARK   11  A    between atoms: O_24  and  C_25 
ROOT
HETATM    1  P   UNK     0      20.283  59.110  59.776  0.00  0.00     0.458 P 
HETATM    2  O   UNK     0      19.418  58.318  58.778  0.00  0.00    -0.232 OA
ENDROOT
BRANCH   1   3
HETATM    3  O   UNK     0      19.014  59.618  60.493  0.00  0.00    -0.271 OA
BRANCH   3   4
HETATM    4  C   UNK     0      17.759  59.963  59.670  0.00  0.00     0.206 C 
BRANCH   4   5
HETATM    5  C   UNK     0      17.758  61.319  58.930  0.00  0.00     0.134 A 
HETATM    6  O   UNK     0      19.060  61.973  58.412  0.00  0.00    -0.291 OA
HETATM    7  C   UNK     0      18.679  63.300  57.735  0.00  0.00     0.178 A 
HETATM    8  C   UNK     0      17.155  63.473  57.830  0.00  0.00     0.232 A 
HETATM    9  C   UNK     0      16.587  62.244  58.571  0.00  0.00     0.166 A 
HETATM   10  F   UNK     0      15.738  64.046  57.693  0.00  0.00    -0.225 F 
HETATM   11  C   UNK     0      17.807  64.656  57.103  0.00  0.00     0.051 C 
HETATM   12  O   UNK     0      15.093  61.989  58.896  0.00  0.00    -0.190 OA
BRANCH   7  13
HETATM   13  N   UNK     0      19.906  64.063  57.166  0.00  0.00    -0.273 N 
HETATM   14  C   UNK     0      20.749  64.961  58.086  0.00  0.00     0.284 A 
HETATM   15  O   UNK     0      20.375  65.105  59.580  0.00  0.00    -0.149 OA
HETATM   16  N   UNK     0      21.965  65.716  57.517  0.00  0.00    -0.182 NA
HETATM   17  C   UNK     0      22.332  65.568  56.029  0.00  0.00     0.195 A 
HETATM   18  O   UNK     0      23.549  66.324  55.460  0.00  0.00    -0.174 OA
HETATM   19  C   UNK     0      21.490  64.671  55.108  0.00  0.00     0.099 A 
HETATM   20  C   UNK     0      20.273  63.915  55.678  0.00  0.00     0.120 A 
ENDBRANCH   7  13
ENDBRANCH   4   5
ENDBRANCH   3   4
ENDBRANCH   1   3
BRANCH   1  21
HETATM   21  O   UNK     0      21.162  59.900  60.770  0.00  0.00    -0.280 OA
BRANCH  21  22
HETATM   22  C   UNK     0      22.125  59.151  61.709  0.00  0.00     0.126 A 
HETATM   23  C   UNK     0      23.423  59.835  62.177  0.00  0.00     0.030 A 
HETATM   24  C   UNK     0      24.386  59.088  63.115  0.00  0.00     0.003 A 
HETATM   25  C   UNK     0      24.051  57.658  63.584  0.00  0.00     0.000 A 
HETATM   26  C   UNK     0      22.744  56.978  63.106  0.00  0.00     0.003 A 
HETATM   27  C   UNK     0      21.787  57.730  62.170  0.00  0.00     0.030 A 
ENDBRANCH  21  22
ENDBRANCH   1  21
BRANCH   1  28
HETATM   28  N   UNK     0      21.359  58.462  58.885  0.00  0.00    -0.177 NA
BRANCH  28  29
HETATM   29  C   UNK     0      22.476  59.330  58.275  0.00  0.00     0.114 C 
HETATM   30  C   UNK     0      23.945  58.882  58.384  0.00  0.00     0.057 C 
BRANCH  29  31
HETATM   31  C   UNK     0      22.123  60.646  57.557  0.00  0.00     0.242 C 
HETATM   32  O   UNK     0      21.497  60.611  56.150  0.00  0.00    -0.162 OA
BRANCH  31  33
HETATM   33  O   UNK     0      22.396  61.997  58.245  0.00  0.00    -0.311 OA
BRANCH  33  34
HETATM   34  C   UNK     0      23.840  62.509  58.389  0.00  0.00     0.124 C 
HETATM   35  C   UNK     0      24.486  62.610  59.784  0.00  0.00     0.033 C 
HETATM   36  C   UNK     0      24.640  62.920  57.139  0.00  0.00     0.033 C 
ENDBRANCH  33  34
ENDBRANCH  31  33
ENDBRANCH  29  31
ENDBRANCH  28  29
ENDBRANCH   1  28
TORSDOF 11
ENDMDL
MODEL 2
REMARK VINA RESULT:      -7.2      1.511      2.475
REMARK  11 active torsions:
REMARK  status: ('A' for Active; 'I' for Inactive)
REMARK    1  A    between atoms: P_1  and  O_4 
REMARK    2  A    between atoms: P_1  and  O_2 
REMARK    3  A    between atoms: P_1  and  N_34 
REMARK    4  A    between atoms: O_2  and  C_28 
REMARK    5  A    between atoms: O_4  and  C_5 
REMARK    6  A    between atoms: C_5  and  C_7 
REMARK    7  A    between atoms: C_10  and  N_15 
REMARK    8  A    between atoms: C_20  and  C_21 
REMARK    9  A    between atoms: C_20  and  N_34 
REMARK   10  A    between atoms: C_21  and  O_24 
REMARK   11  A    between atoms: O_24  and  C_25 
ROOT
HETATM    1  P   UNK     0      20.335  59.054  59.629  0.00  0.00     0.458 P 
HETATM    2  O   UNK     0      19.588  58.288  58.521  0.00  0.00    -0.232 OA
ENDROOT
BRANCH   1   3
HETATM    3  O   UNK     0      19.007  59.288  60.380  0.00  0.00    -0.271 OA
BRANCH   3   4
HETATM    4  C   UNK     0      17.784  59.831  59.618  0.00  0.00     0.206 C 
BRANCH   4   5
HETATM    5  C   UNK     0      17.863  61.290  59.117  0.00  0.00     0.134 A 
HETATM    6  O   UNK     0      19.182  62.096  59.138  0.00  0.00    -0.291 OA
HETATM    7  C   UNK     0      18.885  63.494  58.571  0.00  0.00     0.178 A 
HETATM    8  C   UNK     0      17.395  63.561  58.200  0.00  0.00     0.232 A 
HETATM    9  C   UNK     0      16.765  62.193  58.540  0.00  0.00     0.166 A 
HETATM   10  F   UNK     0      16.035  64.066  57.703  0.00  0.00    -0.225 F 
HETATM   11  C   UNK     0      18.107  64.885  57.894  0.00  0.00     0.051 C 
HETATM   12  O   UNK     0      15.279  61.801  58.333  0.00  0.00    -0.190 OA
BRANCH   7  13
HETATM   13  N   UNK     0      20.138  64.412  58.536  0.00  0.00    -0.273 N 
HETATM   14  C   UNK     0      20.955  64.550  57.242  0.00  0.00     0.284 A 
HETATM   15  O   UNK     0      20.530  63.776  55.972  0.00  0.00    -0.149 OA
HETATM   16  N   UNK     0      22.196  65.461  57.211  0.00  0.00    -0.182 NA
HETATM   17  C   UNK     0      22.614  66.230  58.478  0.00  0.00     0.195 A 
HETATM   18  O   UNK     0      23.856  67.142  58.449  0.00  0.00    -0.174 OA
HETATM   19  C   UNK     0      21.798  66.092  59.774  0.00  0.00     0.099 A 
HETATM   20  C   UNK     0      20.555  65.180  59.803  0.00  0.00     0.120 A 
ENDBRANCH   7  13
ENDBRANCH   4   5
ENDBRANCH   3   4
ENDBRANCH   1   3
BRANCH   1  21
HETATM   21  O   UNK     0      21.095  59.820  60.733  0.00  0.00    -0.280 OA
BRANCH  21  22
HETATM   22  C   UNK     0      22.036  59.062  61.687  0.00  0.00     0.126 A 
HETATM   23  C   UNK     0      23.201  59.807  62.365  0.00  0.00     0.030 A 
HETATM   24  C   UNK     0      24.141  59.051  63.318  0.00  0.00     0.003 A 
HETATM   25  C   UNK     0      23.917  57.551  63.593  0.00  0.00     0.000 A 
HETATM   26  C   UNK     0      22.743  56.810  62.906  0.00  0.00     0.003 A 
HETATM   27  C   UNK     0      21.808  57.572  61.955  0.00  0.00     0.030 A 
ENDBRANCH  21  22
ENDBRANCH   1  21
BRANCH   1  28
HETATM   28  N   UNK     0      21.491  58.680  58.683  0.00  0.00    -0.177 NA
BRANCH  28  29
HETATM   29  C   UNK     0      22.327  59.787  58.016  0.00  0.00     0.114 C 
HETATM   30  C   UNK     0      21.748  60.583  56.832  0.00  0.00     0.057 C 
BRANCH  29  31
HETATM   31  C   UNK     0      23.744  60.099  58.533  0.00  0.00     0.242 C 
HETATM   32  O   UNK     0      24.025  61.431  59.254  0.00  0.00    -0.162 OA
BRANCH  31  33
HETATM   33  O   UNK     0      24.881  59.079  58.329  0.00  0.00    -0.311 OA
BRANCH  33  34
HETATM   34  C   UNK     0      25.126  57.980  59.379  0.00  0.00     0.124 C 
HETATM   35  C   UNK     0      24.295  56.684  59.346  0.00  0.00     0.033 C 
HETATM   36  C   UNK     0      26.203  58.178  60.463  0.00  0.00     0.033 C 
ENDBRANCH  33  34
ENDBRANCH  31  33
ENDBRANCH  29  31
ENDBRANCH  28  29
ENDBRANCH   1  28
TORSDOF 11
ENDMDL
MODEL 3
REMARK VINA RESULT:      -7.0      1.069      1.567
REMARK  11 active torsions:
REMARK  status: ('A' for Active; 'I' for Inactive)
REMARK    1  A    between atoms: P_1  and  O_4 
REMARK    2  A    between atoms: P_1  and  O_2 
REMARK    3  A    between atoms: P_1  and  N_34 
REMARK    4  A    between atoms: O_2  and  C_28 
REMARK    5  A    between atoms: O_4  and  C_5 
REMARK    6  A    between atoms: C_5  and  C_7 
REMARK    7  A    between atoms: C_10  and  N_15 
REMARK    8  A    between atoms: C_20  and  C_21 
REMARK    9  A    between atoms: C_20  and  N_34 
REMARK   10  A    between atoms: C_21  and  O_24 
REMARK   11  A    between atoms: O_24  and  C_25 
ROOT
HETATM    1  P   UNK     0      20.215  58.530  60.119  0.00  0.00     0.458 P 
HETATM    2  O   UNK     0      20.141  59.026  58.662  0.00  0.00    -0.232 OA
ENDROOT
BRANCH   1   3
HETATM    3  O   UNK     0      19.256  59.654  60.564  0.00  0.00    -0.271 OA
BRANCH   3   4
HETATM    4  C   UNK     0      17.976  59.932  59.754  0.00  0.00     0.206 C 
BRANCH   4   5
HETATM    5  C   UNK     0      17.890  61.292  59.027  0.00  0.00     0.134 A 
HETATM    6  O   UNK     0      19.147  62.028  58.509  0.00  0.00    -0.291 OA
HETATM    7  C   UNK     0      18.683  63.337  57.847  0.00  0.00     0.178 A 
HETATM    8  C   UNK     0      17.152  63.416  57.950  0.00  0.00     0.232 A 
HETATM    9  C   UNK     0      16.663  62.147  58.683  0.00  0.00     0.166 A 
HETATM   10  F   UNK     0      15.702  63.903  57.826  0.00  0.00    -0.225 F 
HETATM   11  C   UNK     0      17.727  64.643  57.233  0.00  0.00     0.051 C 
HETATM   12  O   UNK     0      15.189  61.799  59.012  0.00  0.00    -0.190 OA
BRANCH   7  13
HETATM   13  N   UNK     0      19.859  64.178  57.280  0.00  0.00    -0.273 N 
HETATM   14  C   UNK     0      20.776  64.960  58.234  0.00  0.00     0.284 A 
HETATM   15  O   UNK     0      20.529  64.909  59.761  0.00  0.00    -0.149 OA
HETATM   16  N   UNK     0      21.941  65.793  57.668  0.00  0.00    -0.182 NA
HETATM   17  C   UNK     0      22.182  65.840  56.148  0.00  0.00     0.195 A 
HETATM   18  O   UNK     0      23.348  66.674  55.581  0.00  0.00    -0.174 OA
HETATM   19  C   UNK     0      21.265  65.059  55.193  0.00  0.00     0.099 A 
HETATM   20  C   UNK     0      20.099  64.225  55.761  0.00  0.00     0.120 A 
ENDBRANCH   7  13
ENDBRANCH   4   5
ENDBRANCH   3   4
ENDBRANCH   1   3
BRANCH   1  21
HETATM   21  O   UNK     0      20.298  58.023  61.575  0.00  0.00    -0.280 OA
BRANCH  21  22
HETATM   22  C   UNK     0      21.632  58.091  62.339  0.00  0.00     0.126 A 
HETATM   23  C   UNK     0      22.207  59.457  62.757  0.00  0.00     0.030 A 
HETATM   24  C   UNK     0      23.541  59.525  63.520  0.00  0.00     0.003 A 
HETATM   25  C   UNK     0      24.299  58.227  63.865  0.00  0.00     0.000 A 
HETATM   26  C   UNK     0      23.712  56.858  63.441  0.00  0.00     0.003 A 
HETATM   27  C   UNK     0      22.380  56.798  62.679  0.00  0.00     0.030 A 
ENDBRANCH  21  22
ENDBRANCH   1  21
BRANCH   1  28
HETATM   28  N   UNK     0      21.139  57.525  59.407  0.00  0.00    -0.177 NA
BRANCH  28  29
HETATM   29  C   UNK     0      22.628  57.862  59.201  0.00  0.00     0.114 C 
HETATM   30  C   UNK     0      23.702  56.786  59.441  0.00  0.00     0.057 C 
BRANCH  29  31
HETATM   31  C   UNK     0      23.041  59.277  58.754  0.00  0.00     0.242 C 
HETATM   32  O   UNK     0      23.402  60.342  59.806  0.00  0.00    -0.162 OA
BRANCH  31  33
HETATM   33  O   UNK     0      23.094  59.626  57.255  0.00  0.00    -0.311 OA
BRANCH  33  34
HETATM   34  C   UNK     0      22.422  60.912  56.740  0.00  0.00     0.124 C 
HETATM   35  C   UNK     0      23.020  62.288  57.091  0.00  0.00     0.033 C 
HETATM   36  C   UNK     0      21.151  60.824  55.875  0.00  0.00     0.033 C 
ENDBRANCH  33  34
ENDBRANCH  31  33
ENDBRANCH  29  31
ENDBRANCH  28  29
ENDBRANCH   1  28
TORSDOF 11
ENDMDL
MODEL 4
REMARK VINA RESULT:      -6.9      3.839      8.045
REMARK  11 active torsions:
REMARK  status: ('A' for Active; 'I' for Inactive)
REMARK    1  A    between atoms: P_1  and  O_4 
REMARK    2  A    between atoms: P_1  and  O_2 
REMARK    3  A    between atoms: P_1  and  N_34 
REMARK    4  A    between atoms: O_2  and  C_28 
REMARK    5  A    between atoms: O_4  and  C_5 
REMARK    6  A    between atoms: C_5  and  C_7 
REMARK    7  A    between atoms: C_10  and  N_15 
REMARK    8  A    between atoms: C_20  and  C_21 
REMARK    9  A    between atoms: C_20  and  N_34 
REMARK   10  A    between atoms: C_21  and  O_24 
REMARK   11  A    between atoms: O_24  and  C_25 
ROOT
HETATM    1  P   UNK     0      23.065  66.743  58.707  0.00  0.00     0.458 P 
HETATM    2  O   UNK     0      22.619  67.818  59.716  0.00  0.00    -0.232 OA
ENDROOT
BRANCH   1   3
HETATM    3  O   UNK     0      22.569  65.630  59.653  0.00  0.00    -0.271 OA
BRANCH   3   4
HETATM    4  C   UNK     0      21.063  65.493  59.948  0.00  0.00     0.206 C 
BRANCH   4   5
HETATM    5  C   UNK     0      20.449  64.082  59.809  0.00  0.00     0.134 A 
HETATM    6  O   UNK     0      21.122  62.830  60.416  0.00  0.00    -0.291 OA
HETATM    7  C   UNK     0      20.238  61.616  60.083  0.00  0.00     0.178 A 
HETATM    8  C   UNK     0      19.025  62.106  59.277  0.00  0.00     0.232 A 
HETATM    9  C   UNK     0      19.159  63.635  59.108  0.00  0.00     0.166 A 
HETATM   10  F   UNK     0      17.712  62.133  58.484  0.00  0.00    -0.225 F 
HETATM   11  C   UNK     0      18.975  60.588  59.493  0.00  0.00     0.051 C 
HETATM   12  O   UNK     0      18.163  64.558  58.360  0.00  0.00    -0.190 OA
BRANCH   7  13
HETATM   13  N   UNK     0      20.806  60.282  60.641  0.00  0.00    -0.273 N 
HETATM   14  C   UNK     0      21.726  59.413  59.769  0.00  0.00     0.284 A 
HETATM   15  O   UNK     0      22.087  59.866  58.334  0.00  0.00    -0.149 OA
HETATM   16  N   UNK     0      22.287  58.091  60.325  0.00  0.00    -0.182 NA
HETATM   17  C   UNK     0      21.924  57.645  61.754  0.00  0.00     0.195 A 
HETATM   18  O   UNK     0      22.485  56.323  62.311  0.00  0.00    -0.174 OA
HETATM   19  C   UNK     0      21.004  58.515  62.627  0.00  0.00     0.099 A 
HETATM   20  C   UNK     0      20.443  59.837  62.069  0.00  0.00     0.120 A 
ENDBRANCH   7  13
ENDBRANCH   4   5
ENDBRANCH   3   4
ENDBRANCH   1   3
BRANCH   1  21
HETATM   21  O   UNK     0      23.517  65.676  57.687  0.00  0.00    -0.280 OA
BRANCH  21  22
HETATM   22  C   UNK     0      22.469  64.831  56.942  0.00  0.00     0.126 A 
HETATM   23  C   UNK     0      21.285  65.523  56.242  0.00  0.00     0.030 A 
HETATM   24  C   UNK     0      20.237  64.679  55.497  0.00  0.00     0.003 A 
HETATM   25  C   UNK     0      20.374  63.144  55.452  0.00  0.00     0.000 A 
HETATM   26  C   UNK     0      21.569  62.457  56.158  0.00  0.00     0.003 A 
HETATM   27  C   UNK     0      22.611  63.306  56.900  0.00  0.00     0.030 A 
ENDBRANCH  21  22
ENDBRANCH   1  21
BRANCH   1  28
HETATM   28  N   UNK     0      23.466  68.037  57.974  0.00  0.00    -0.177 NA
BRANCH  28  29
HETATM   29  C   UNK     0      24.765  68.769  58.361  0.00  0.00     0.114 C 
HETATM   30  C   UNK     0      26.091  67.991  58.448  0.00  0.00     0.057 C 
BRANCH  29  31
HETATM   31  C   UNK     0      24.737  70.279  58.661  0.00  0.00     0.242 C 
HETATM   32  O   UNK     0      24.915  71.295  57.517  0.00  0.00    -0.162 OA
BRANCH  31  33
HETATM   33  O   UNK     0      24.530  70.774  60.105  0.00  0.00    -0.311 OA
BRANCH  33  34
HETATM   34  C   UNK     0      23.343  71.695  60.440  0.00  0.00     0.124 C 
HETATM   35  C   UNK     0      23.460  73.215  60.216  0.00  0.00     0.033 C 
HETATM   36  C   UNK     0      22.039  71.098  61.001  0.00  0.00     0.033 C 
ENDBRANCH  33  34
ENDBRANCH  31  33
ENDBRANCH  29  31
ENDBRANCH  28  29
ENDBRANCH   1  28
TORSDOF 11
ENDMDL
MODEL 5
REMARK VINA RESULT:      -6.9      1.754      4.011
REMARK  11 active torsions:
REMARK  status: ('A' for Active; 'I' for Inactive)
REMARK    1  A    between atoms: P_1  and  O_4 
REMARK    2  A    between atoms: P_1  and  O_2 
REMARK    3  A    between atoms: P_1  and  N_34 
REMARK    4  A    between atoms: O_2  and  C_28 
REMARK    5  A    between atoms: O_4  and  C_5 
REMARK    6  A    between atoms: C_5  and  C_7 
REMARK    7  A    between atoms: C_10  and  N_15 
REMARK    8  A    between atoms: C_20  and  C_21 
REMARK    9  A    between atoms: C_20  and  N_34 
REMARK   10  A    between atoms: C_21  and  O_24 
REMARK   11  A    between atoms: O_24  and  C_25 
ROOT
HETATM    1  P   UNK     0      20.214  57.712  59.471  0.00  0.00     0.458 P 
HETATM    2  O   UNK     0      18.907  57.376  60.214  0.00  0.00    -0.232 OA
ENDROOT
BRANCH   1   3
HETATM    3  O   UNK     0      19.479  58.779  58.633  0.00  0.00    -0.271 OA
BRANCH   3   4
HETATM    4  C   UNK     0      18.334  59.592  59.265  0.00  0.00     0.206 C 
BRANCH   4   5
HETATM    5  C   UNK     0      18.267  61.094  58.914  0.00  0.00     0.134 A 
HETATM    6  O   UNK     0      19.522  61.996  58.919  0.00  0.00    -0.291 OA
HETATM    7  C   UNK     0      19.080  63.416  58.525  0.00  0.00     0.178 A 
HETATM    8  C   UNK     0      17.563  63.399  58.275  0.00  0.00     0.232 A 
HETATM    9  C   UNK     0      17.062  61.959  58.518  0.00  0.00     0.166 A 
HETATM   10  F   UNK     0      16.134  63.841  57.937  0.00  0.00    -0.225 F 
HETATM   11  C   UNK     0      18.150  64.800  58.057  0.00  0.00     0.051 C 
HETATM   12  O   UNK     0      15.597  61.472  58.383  0.00  0.00    -0.190 OA
BRANCH   7  13
HETATM   13  N   UNK     0      20.256  64.429  58.492  0.00  0.00    -0.273 N 
HETATM   14  C   UNK     0      20.966  64.741  57.165  0.00  0.00     0.284 A 
HETATM   15  O   UNK     0      20.510  64.046  55.860  0.00  0.00    -0.149 OA
HETATM   16  N   UNK     0      22.132  65.747  57.136  0.00  0.00    -0.182 NA
HETATM   17  C   UNK     0      22.583  66.436  58.438  0.00  0.00     0.195 A 
HETATM   18  O   UNK     0      23.750  67.442  58.410  0.00  0.00    -0.174 OA
HETATM   19  C   UNK     0      21.873  66.124  59.766  0.00  0.00     0.099 A 
HETATM   20  C   UNK     0      20.706  65.117  59.793  0.00  0.00     0.120 A 
ENDBRANCH   7  13
ENDBRANCH   4   5
ENDBRANCH   3   4
ENDBRANCH   1   3
BRANCH   1  21
HETATM   21  O   UNK     0      21.530  58.039  58.734  0.00  0.00    -0.280 OA
BRANCH  21  22
HETATM   22  C   UNK     0      22.081  59.476  58.743  0.00  0.00     0.126 A 
HETATM   23  C   UNK     0      22.418  60.175  57.412  0.00  0.00     0.030 A 
HETATM   24  C   UNK     0      22.968  61.611  57.420  0.00  0.00     0.003 A 
HETATM   25  C   UNK     0      23.182  62.347  58.758  0.00  0.00     0.000 A 
HETATM   26  C   UNK     0      22.841  61.636  60.090  0.00  0.00     0.003 A 
HETATM   27  C   UNK     0      22.291  60.202  60.075  0.00  0.00     0.030 A 
ENDBRANCH  21  22
ENDBRANCH   1  21
BRANCH   1  28
HETATM   28  N   UNK     0      20.684  56.605  60.432  0.00  0.00    -0.177 NA
BRANCH  28  29
HETATM   29  C   UNK     0      22.021  56.755  61.182  0.00  0.00     0.114 C 
HETATM   30  C   UNK     0      23.313  56.175  60.578  0.00  0.00     0.057 C 
BRANCH  29  31
HETATM   31  C   UNK     0      22.065  57.485  62.538  0.00  0.00     0.242 C 
HETATM   32  O   UNK     0      21.035  58.586  62.853  0.00  0.00    -0.162 OA
BRANCH  31  33
HETATM   33  O   UNK     0      23.139  57.114  63.578  0.00  0.00    -0.311 OA
BRANCH  33  34
HETATM   34  C   UNK     0      24.373  58.016  63.765  0.00  0.00     0.124 C 
HETATM   35  C   UNK     0      25.543  57.546  64.649  0.00  0.00     0.033 C 
HETATM   36  C   UNK     0      24.437  59.388  63.068  0.00  0.00     0.033 C 
ENDBRANCH  33  34
ENDBRANCH  31  33
ENDBRANCH  29  31
ENDBRANCH  28  29
ENDBRANCH   1  28
TORSDOF 11
ENDMDL
MODEL 6
REMARK VINA RESULT:      -6.9      3.135      6.285
REMARK  11 active torsions:
REMARK  status: ('A' for Active; 'I' for Inactive)
REMARK    1  A    between atoms: P_1  and  O_4 
REMARK    2  A    between atoms: P_1  and  O_2 
REMARK    3  A    between atoms: P_1  and  N_34 
REMARK    4  A    between atoms: O_2  and  C_28 
REMARK    5  A    between atoms: O_4  and  C_5 
REMARK    6  A    between atoms: C_5  and  C_7 
REMARK    7  A    between atoms: C_10  and  N_15 
REMARK    8  A    between atoms: C_20  and  C_21 
REMARK    9  A    between atoms: C_20  and  N_34 
REMARK   10  A    between atoms: C_21  and  O_24 
REMARK   11  A    between atoms: O_24  and  C_25 
ROOT
HETATM    1  P   UNK     0      20.229  60.478  58.744  0.00  0.00     0.458 P 
HETATM    2  O   UNK     0      21.071  59.431  57.990  0.00  0.00    -0.232 OA
ENDROOT
BRANCH   1   3
HETATM    3  O   UNK     0      21.188  61.598  58.288  0.00  0.00    -0.271 OA
BRANCH   3   4
HETATM    4  C   UNK     0      21.326  61.922  56.788  0.00  0.00     0.206 C 
BRANCH   4   5
HETATM    5  C   UNK     0      21.410  63.415  56.401  0.00  0.00     0.134 A 
HETATM    6  O   UNK     0      20.466  64.046  55.352  0.00  0.00    -0.291 OA
HETATM    7  C   UNK     0      20.836  65.534  55.225  0.00  0.00     0.178 A 
HETATM    8  C   UNK     0      21.999  65.828  56.186  0.00  0.00     0.232 A 
HETATM    9  C   UNK     0      22.352  64.513  56.914  0.00  0.00     0.166 A 
HETATM   10  F   UNK     0      23.105  66.555  56.962  0.00  0.00    -0.225 F 
HETATM   11  C   UNK     0      21.579  67.086  55.416  0.00  0.00     0.051 C 
HETATM   12  O   UNK     0      23.466  64.333  57.978  0.00  0.00    -0.190 OA
BRANCH   7  13
HETATM   13  N   UNK     0      19.956  66.291  54.193  0.00  0.00    -0.273 N 
HETATM   14  C   UNK     0      20.358  66.316  52.710  0.00  0.00     0.284 A 
HETATM   15  O   UNK     0      21.639  65.586  52.243  0.00  0.00    -0.149 OA
HETATM   16  N   UNK     0      19.482  67.067  51.690  0.00  0.00    -0.182 NA
HETATM   17  C   UNK     0      18.207  67.792  52.161  0.00  0.00     0.195 A 
HETATM   18  O   UNK     0      17.331  68.544  51.141  0.00  0.00    -0.174 OA
HETATM   19  C   UNK     0      17.805  67.768  53.645  0.00  0.00     0.099 A 
HETATM   20  C   UNK     0      18.682  67.015  54.665  0.00  0.00     0.120 A 
ENDBRANCH   7  13
ENDBRANCH   4   5
ENDBRANCH   3   4
ENDBRANCH   1   3
BRANCH   1  21
HETATM   21  O   UNK     0      19.376  61.517  59.503  0.00  0.00    -0.280 OA
BRANCH  21  22
HETATM   22  C   UNK     0      18.137  62.136  58.830  0.00  0.00     0.126 A 
HETATM   23  C   UNK     0      16.822  61.338  58.768  0.00  0.00     0.030 A 
HETATM   24  C   UNK     0      15.583  61.956  58.097  0.00  0.00     0.003 A 
HETATM   25  C   UNK     0      15.661  63.370  57.488  0.00  0.00     0.000 A 
HETATM   26  C   UNK     0      16.989  64.164  57.555  0.00  0.00     0.003 A 
HETATM   27  C   UNK     0      18.221  63.541  58.227  0.00  0.00     0.030 A 
ENDBRANCH  21  22
ENDBRANCH   1  21
BRANCH   1  28
HETATM   28  N   UNK     0      19.451  59.184  59.046  0.00  0.00    -0.177 NA
BRANCH  28  29
HETATM   29  C   UNK     0      19.901  58.269  60.201  0.00  0.00     0.114 C 
HETATM   30  C   UNK     0      19.467  56.793  60.228  0.00  0.00     0.057 C 
BRANCH  29  31
HETATM   31  C   UNK     0      20.785  58.833  61.329  0.00  0.00     0.242 C 
HETATM   32  O   UNK     0      20.144  59.608  62.496  0.00  0.00    -0.162 OA
BRANCH  31  33
HETATM   33  O   UNK     0      22.310  58.622  61.292  0.00  0.00    -0.311 OA
BRANCH  33  34
HETATM   34  C   UNK     0      22.895  57.208  61.461  0.00  0.00     0.124 C 
HETATM   35  C   UNK     0      23.215  56.353  60.220  0.00  0.00     0.033 C 
HETATM   36  C   UNK     0      23.162  56.649  62.871  0.00  0.00     0.033 C 
ENDBRANCH  33  34
ENDBRANCH  31  33
ENDBRANCH  29  31
ENDBRANCH  28  29
ENDBRANCH   1  28
TORSDOF 11
ENDMDL
MODEL 7
REMARK VINA RESULT:      -6.7      3.538      6.700
REMARK  11 active torsions:
REMARK  status: ('A' for Active; 'I' for Inactive)
REMARK    1  A    between atoms: P_1  and  O_4 
REMARK    2  A    between atoms: P_1  and  O_2 
REMARK    3  A    between atoms: P_1  and  N_34 
REMARK    4  A    between atoms: O_2  and  C_28 
REMARK    5  A    between atoms: O_4  and  C_5 
REMARK    6  A    between atoms: C_5  and  C_7 
REMARK    7  A    between atoms: C_10  and  N_15 
REMARK    8  A    between atoms: C_20  and  C_21 
REMARK    9  A    between atoms: C_20  and  N_34 
REMARK   10  A    between atoms: C_21  and  O_24 
REMARK   11  A    between atoms: O_24  and  C_25 
ROOT
HETATM    1  P   UNK     0      19.991  63.413  58.786  0.00  0.00     0.458 P 
HETATM    2  O   UNK     0      20.100  64.817  59.410  0.00  0.00    -0.232 OA
ENDROOT
BRANCH   1   3
HETATM    3  O   UNK     0      21.529  63.323  58.688  0.00  0.00    -0.271 OA
BRANCH   3   4
HETATM    4  C   UNK     0      22.207  63.319  57.306  0.00  0.00     0.206 C 
BRANCH   4   5
HETATM    5  C   UNK     0      22.215  64.653  56.527  0.00  0.00     0.134 A 
HETATM    6  O   UNK     0      21.088  65.037  55.542  0.00  0.00    -0.291 OA
HETATM    7  C   UNK     0      21.427  66.419  54.958  0.00  0.00     0.178 A 
HETATM    8  C   UNK     0      22.753  66.893  55.574  0.00  0.00     0.232 A 
HETATM    9  C   UNK     0      23.239  65.797  56.546  0.00  0.00     0.166 A 
HETATM   10  F   UNK     0      23.987  67.740  55.910  0.00  0.00    -0.225 F 
HETATM   11  C   UNK     0      22.193  67.927  54.589  0.00  0.00     0.051 C 
HETATM   12  O   UNK     0      24.536  65.844  57.394  0.00  0.00    -0.190 OA
BRANCH   7  13
HETATM   13  N   UNK     0      20.364  66.925  53.944  0.00  0.00    -0.273 N 
HETATM   14  C   UNK     0      20.471  66.539  52.460  0.00  0.00     0.284 A 
HETATM   15  O   UNK     0      21.638  65.645  51.975  0.00  0.00    -0.149 OA
HETATM   16  N   UNK     0      19.416  67.042  51.459  0.00  0.00    -0.182 NA
HETATM   17  C   UNK     0      18.258  67.931  51.947  0.00  0.00     0.195 A 
HETATM   18  O   UNK     0      17.201  68.436  50.945  0.00  0.00    -0.174 OA
HETATM   19  C   UNK     0      18.150  68.318  53.432  0.00  0.00     0.099 A 
HETATM   20  C   UNK     0      19.207  67.813  54.434  0.00  0.00     0.120 A 
ENDBRANCH   7  13
ENDBRANCH   4   5
ENDBRANCH   3   4
ENDBRANCH   1   3
BRANCH   1  21
HETATM   21  O   UNK     0      19.868  62.006  58.162  0.00  0.00    -0.280 OA
BRANCH  21  22
HETATM   22  C   UNK     0      20.233  60.762  58.991  0.00  0.00     0.126 A 
HETATM   23  C   UNK     0      20.957  59.580  58.320  0.00  0.00     0.030 A 
HETATM   24  C   UNK     0      21.322  58.336  59.147  0.00  0.00     0.003 A 
HETATM   25  C   UNK     0      20.963  58.274  60.645  0.00  0.00     0.000 A 
HETATM   26  C   UNK     0      20.235  59.468  61.312  0.00  0.00     0.003 A 
HETATM   27  C   UNK     0      19.874  60.706  60.479  0.00  0.00     0.030 A 
ENDBRANCH  21  22
ENDBRANCH   1  21
BRANCH   1  28
HETATM   28  N   UNK     0      18.509  63.768  59.001  0.00  0.00    -0.177 NA
BRANCH  28  29
HETATM   29  C   UNK     0      17.609  64.074  57.789  0.00  0.00     0.114 C 
HETATM   30  C   UNK     0      18.076  65.071  56.714  0.00  0.00     0.057 C 
BRANCH  29  31
HETATM   31  C   UNK     0      16.239  63.382  57.654  0.00  0.00     0.242 C 
HETATM   32  O   UNK     0      16.131  61.853  57.806  0.00  0.00    -0.162 OA
BRANCH  31  33
HETATM   33  O   UNK     0      14.978  64.218  57.366  0.00  0.00    -0.311 OA
BRANCH  33  34
HETATM   34  C   UNK     0      14.439  64.328  55.928  0.00  0.00     0.124 C 
HETATM   35  C   UNK     0      15.147  65.240  54.908  0.00  0.00     0.033 C 
HETATM   36  C   UNK     0      13.192  63.527  55.509  0.00  0.00     0.033 C 
ENDBRANCH  33  34
ENDBRANCH  31  33
ENDBRANCH  29  31
ENDBRANCH  28  29
ENDBRANCH   1  28
TORSDOF 11
ENDMDL
MODEL 8
REMARK VINA RESULT:      -6.7      1.927      4.030
REMARK  11 active torsions:
REMARK  status: ('A' for Active; 'I' for Inactive)
REMARK    1  A    between atoms: P_1  and  O_4 
REMARK    2  A    between atoms: P_1  and  O_2 
REMARK    3  A    between atoms: P_1  and  N_34 
REMARK    4  A    between atoms: O_2  and  C_28 
REMARK    5  A    between atoms: O_4  and  C_5 
REMARK    6  A    between atoms: C_5  and  C_7 
REMARK    7  A    between atoms: C_10  and  N_15 
REMARK    8  A    between atoms: C_20  and  C_21 
REMARK    9  A    between atoms: C_20  and  N_34 
REMARK   10  A    between atoms: C_21  and  O_24 
REMARK   11  A    between atoms: O_24  and  C_25 
ROOT
HETATM    1  P   UNK     0      18.835  59.588  59.413  0.00  0.00     0.458 P 
HETATM    2  O   UNK     0      18.006  60.015  60.640  0.00  0.00    -0.232 OA
ENDROOT
BRANCH   1   3
HETATM    3  O   UNK     0      18.123  60.648  58.547  0.00  0.00    -0.271 OA
BRANCH   3   4
HETATM    4  C   UNK     0      18.043  62.106  59.035  0.00  0.00     0.206 C 
BRANCH   4   5
HETATM    5  C   UNK     0      18.370  63.208  58.003  0.00  0.00     0.134 A 
HETATM    6  O   UNK     0      19.815  63.491  57.534  0.00  0.00    -0.291 OA
HETATM    7  C   UNK     0      19.759  64.642  56.515  0.00  0.00     0.178 A 
HETATM    8  C   UNK     0      18.293  65.073  56.350  0.00  0.00     0.232 A 
HETATM    9  C   UNK     0      17.435  64.182  57.274  0.00  0.00     0.166 A 
HETATM   10  F   UNK     0      17.030  65.807  55.883  0.00  0.00    -0.225 F 
HETATM   11  C   UNK     0      19.224  65.910  55.464  0.00  0.00     0.051 C 
HETATM   12  O   UNK     0      15.894  64.258  57.435  0.00  0.00    -0.190 OA
BRANCH   7  13
HETATM   13  N   UNK     0      21.158  65.029  55.961  0.00  0.00    -0.273 N 
HETATM   14  C   UNK     0      22.214  65.640  56.896  0.00  0.00     0.284 A 
HETATM   15  O   UNK     0      21.885  65.870  58.390  0.00  0.00    -0.149 OA
HETATM   16  N   UNK     0      23.599  66.022  56.342  0.00  0.00    -0.182 NA
HETATM   17  C   UNK     0      23.921  65.791  54.854  0.00  0.00     0.195 A 
HETATM   18  O   UNK     0      25.307  66.173  54.300  0.00  0.00    -0.174 OA
HETATM   19  C   UNK     0      22.865  65.180  53.919  0.00  0.00     0.099 A 
HETATM   20  C   UNK     0      21.479  64.797  54.474  0.00  0.00     0.120 A 
ENDBRANCH   7  13
ENDBRANCH   4   5
ENDBRANCH   3   4
ENDBRANCH   1   3
BRANCH   1  21
HETATM   21  O   UNK     0      19.672  59.150  58.192  0.00  0.00    -0.280 OA
BRANCH  21  22
HETATM   22  C   UNK     0      20.749  60.090  57.620  0.00  0.00     0.126 A 
HETATM   23  C   UNK     0      20.747  60.431  56.119  0.00  0.00     0.030 A 
HETATM   24  C   UNK     0      21.823  61.370  55.547  0.00  0.00     0.003 A 
HETATM   25  C   UNK     0      22.899  61.967  56.476  0.00  0.00     0.000 A 
HETATM   26  C   UNK     0      22.892  61.618  57.985  0.00  0.00     0.003 A 
HETATM   27  C   UNK     0      21.815  60.680  58.549  0.00  0.00     0.030 A 
ENDBRANCH  21  22
ENDBRANCH   1  21
BRANCH   1  28
HETATM   28  N   UNK     0      19.374  58.633  60.495  0.00  0.00    -0.177 NA
BRANCH  28  29
HETATM   29  C   UNK     0      20.164  57.376  60.085  0.00  0.00     0.114 C 
HETATM   30  C   UNK     0      19.432  56.173  59.464  0.00  0.00     0.057 C 
BRANCH  29  31
HETATM   31  C   UNK     0      21.689  57.324  60.298  0.00  0.00     0.242 C 
HETATM   32  O   UNK     0      22.617  56.946  59.128  0.00  0.00    -0.162 OA
BRANCH  31  33
HETATM   33  O   UNK     0      22.286  57.649  61.680  0.00  0.00    -0.311 OA
BRANCH  33  34
HETATM   34  C   UNK     0      22.661  59.100  62.034  0.00  0.00     0.124 C 
HETATM   35  C   UNK     0      21.726  59.943  62.921  0.00  0.00     0.033 C 
HETATM   36  C   UNK     0      23.972  59.708  61.500  0.00  0.00     0.033 C 
ENDBRANCH  33  34
ENDBRANCH  31  33
ENDBRANCH  29  31
ENDBRANCH  28  29
ENDBRANCH   1  28
TORSDOF 11
ENDMDL
MODEL 9
REMARK VINA RESULT:      -6.7      2.630      4.740
REMARK  11 active torsions:
REMARK  status: ('A' for Active; 'I' for Inactive)
REMARK    1  A    between atoms: P_1  and  O_4 
REMARK    2  A    between atoms: P_1  and  O_2 
REMARK    3  A    between atoms: P_1  and  N_34 
REMARK    4  A    between atoms: O_2  and  C_28 
REMARK    5  A    between atoms: O_4  and  C_5 
REMARK    6  A    between atoms: C_5  and  C_7 
REMARK    7  A    between atoms: C_10  and  N_15 
REMARK    8  A    between atoms: C_20  and  C_21 
REMARK    9  A    between atoms: C_20  and  N_34 
REMARK   10  A    between atoms: C_21  and  O_24 
REMARK   11  A    between atoms: O_24  and  C_25 
ROOT
HETATM    1  P   UNK     0      21.426  58.615  59.860  0.00  0.00     0.458 P 
HETATM    2  O   UNK     0      20.602  58.526  61.159  0.00  0.00    -0.232 OA
ENDROOT
BRANCH   1   3
HETATM    3  O   UNK     0      20.130  58.610  59.022  0.00  0.00    -0.271 OA
BRANCH   3   4
HETATM    4  C   UNK     0      19.027  59.644  59.315  0.00  0.00     0.206 C 
BRANCH   4   5
HETATM    5  C   UNK     0      19.372  61.127  59.055  0.00  0.00     0.134 A 
HETATM    6  O   UNK     0      18.828  61.895  57.829  0.00  0.00    -0.291 OA
HETATM    7  C   UNK     0      19.374  63.331  57.897  0.00  0.00     0.178 A 
HETATM    8  C   UNK     0      20.250  63.458  59.153  0.00  0.00     0.232 A 
HETATM    9  C   UNK     0      20.246  62.090  59.869  0.00  0.00     0.166 A 
HETATM   10  F   UNK     0      21.169  64.027  60.242  0.00  0.00    -0.225 F 
HETATM   11  C   UNK     0      20.195  64.779  58.375  0.00  0.00     0.051 C 
HETATM   12  O   UNK     0      20.997  61.750  61.182  0.00  0.00    -0.190 OA
BRANCH   7  13
HETATM   13  N   UNK     0      18.898  64.216  56.712  0.00  0.00    -0.273 N 
HETATM   14  C   UNK     0      17.444  64.709  56.655  0.00  0.00     0.284 A 
HETATM   15  O   UNK     0      16.451  64.325  57.778  0.00  0.00    -0.149 OA
HETATM   16  N   UNK     0      16.976  65.586  55.479  0.00  0.00    -0.182 NA
HETATM   17  C   UNK     0      17.968  65.966  54.364  0.00  0.00     0.195 A 
HETATM   18  O   UNK     0      17.501  66.844  53.187  0.00  0.00    -0.174 OA
HETATM   19  C   UNK     0      19.424  65.473  54.420  0.00  0.00     0.099 A 
HETATM   20  C   UNK     0      19.890  64.595  55.598  0.00  0.00     0.120 A 
ENDBRANCH   7  13
ENDBRANCH   4   5
ENDBRANCH   3   4
ENDBRANCH   1   3
BRANCH   1  21
HETATM   21  O   UNK     0      22.263  58.704  58.566  0.00  0.00    -0.280 OA
BRANCH  21  22
HETATM   22  C   UNK     0      22.543  60.074  57.922  0.00  0.00     0.126 A 
HETATM   23  C   UNK     0      21.848  60.455  56.602  0.00  0.00     0.030 A 
HETATM   24  C   UNK     0      22.126  61.823  55.958  0.00  0.00     0.003 A 
HETATM   25  C   UNK     0      23.099  62.810  56.634  0.00  0.00     0.000 A 
HETATM   26  C   UNK     0      23.793  62.417  57.962  0.00  0.00     0.003 A 
HETATM   27  C   UNK     0      23.510  61.049  58.599  0.00  0.00     0.030 A 
ENDBRANCH  21  22
ENDBRANCH   1  21
BRANCH   1  28
HETATM   28  N   UNK     0      22.536  58.603  60.927  0.00  0.00    -0.177 NA
BRANCH  28  29
HETATM   29  C   UNK     0      23.622  57.510  60.894  0.00  0.00     0.114 C 
HETATM   30  C   UNK     0      23.278  56.069  61.310  0.00  0.00     0.057 C 
BRANCH  29  31
HETATM   31  C   UNK     0      25.053  57.861  60.444  0.00  0.00     0.242 C 
HETATM   32  O   UNK     0      25.652  57.192  59.193  0.00  0.00    -0.162 OA
BRANCH  31  33
HETATM   33  O   UNK     0      25.884  58.881  61.245  0.00  0.00    -0.311 OA
BRANCH  33  34
HETATM   34  C   UNK     0      26.178  58.633  62.736  0.00  0.00     0.124 C 
HETATM   35  C   UNK     0      26.505  57.212  63.231  0.00  0.00     0.033 C 
HETATM   36  C   UNK     0      26.144  59.807  63.733  0.00  0.00     0.033 C 
ENDBRANCH  33  34
ENDBRANCH  31  33
ENDBRANCH  29  31
ENDBRANCH  28  29
ENDBRANCH   1  28
TORSDOF 11
ENDMDL
