REMARK  11 active torsions:
REMARK  status: ('A' for Active; 'I' for Inactive)
REMARK    1  A    between atoms: P_1  and  O_4 
REMARK    2  A    between atoms: P_1  and  O_2 
REMARK    3  A    between atoms: P_1  and  N_34 
REMARK    4  A    between atoms: O_2  and  C_28 
REMARK    5  A    between atoms: O_4  and  C_5 
REMARK    6  A    between atoms: C_5  and  C_7 
REMARK    7  A    between atoms: C_10  and  N_15 
REMARK    8  A    between atoms: C_20  and  C_21 
REMARK    9  A    between atoms: C_20  and  N_34 
REMARK   10  A    between atoms: C_21  and  O_24 
REMARK   11  A    between atoms: O_24  and  C_25 
ROOT
HETATM    1  P   UNK     0      -2.608  -0.607   0.000  0.00  0.00     0.458 P 
HETATM    2  O   UNK     0      -2.104   0.849   0.000  0.00  0.00    -0.232 OA
ENDROOT
BRANCH   1   3
HETATM    3  O   UNK     0      -1.154  -1.124   0.000  0.00  0.00    -0.271 OA
BRANCH   3   4
HETATM    4  C   UNK     0       0.014  -0.120   0.000  0.00  0.00     0.206 C 
BRANCH   4   5
HETATM    5  C   UNK     0       1.442  -0.709   0.000  0.00  0.00     0.134 A 
HETATM    6  O   UNK     0       2.701   0.188   0.000  0.00  0.00    -0.291 OA
HETATM    7  C   UNK     0       3.932  -0.734   0.000  0.00  0.00     0.178 A 
HETATM    8  C   UNK     0       3.446  -2.192   0.000  0.00  0.00     0.232 A 
HETATM    9  C   UNK     0       1.902  -2.173   0.000  0.00  0.00     0.166 A 
HETATM   10  F   UNK     0       3.428  -3.726   0.000  0.00  0.00    -0.225 F 
HETATM   11  C   UNK     0       4.978  -2.114   0.000  0.00  0.00     0.051 C 
HETATM   12  O   UNK     0       0.978  -3.418   0.000  0.00  0.00    -0.190 OA
BRANCH   7  13
HETATM   13  N   UNK     0       5.274   0.048   0.000  0.00  0.00    -0.273 N 
HETATM   14  C   UNK     0       6.609  -0.714   0.000  0.00  0.00     0.284 A 
HETATM   15  O   UNK     0       6.617  -2.261   0.000  0.00  0.00    -0.149 OA
HETATM   16  N   UNK     0       7.937   0.065   0.000  0.00  0.00    -0.182 NA
HETATM   17  C   UNK     0       7.923   1.605   0.000  0.00  0.00     0.195 A 
HETATM   18  O   UNK     0       9.252   2.385   0.000  0.00  0.00    -0.174 OA
HETATM   19  C   UNK     0       6.588   2.368   0.000  0.00  0.00     0.099 A 
HETATM   20  C   UNK     0       5.259   1.587   0.000  0.00  0.00     0.120 A 
ENDBRANCH   7  13
ENDBRANCH   4   5
ENDBRANCH   3   4
ENDBRANCH   1   3
BRANCH   1  21
HETATM   21  O   UNK     0      -3.126  -2.061   0.000  0.00  0.00    -0.280 OA
BRANCH  21  22
HETATM   22  C   UNK     0      -4.640  -2.339   0.000  0.00  0.00     0.126 A 
HETATM   23  C   UNK     0      -5.634  -1.163   0.000  0.00  0.00     0.030 A 
HETATM   24  C   UNK     0      -7.147  -1.440   0.000  0.00  0.00     0.003 A 
HETATM   25  C   UNK     0      -7.665  -2.892   0.000  0.00  0.00     0.000 A 
HETATM   26  C   UNK     0      -6.657  -4.068   0.000  0.00  0.00     0.003 A 
HETATM   27  C   UNK     0      -5.148  -3.784   0.000  0.00  0.00     0.030 A 
ENDBRANCH  21  22
ENDBRANCH   1  21
BRANCH   1  28
HETATM   28  N   UNK     0      -3.934   0.176   0.000  0.00  0.00    -0.177 NA
BRANCH  28  29
HETATM   29  C   UNK     0      -3.917   1.716   0.000  0.00  0.00     0.114 C 
HETATM   30  C   UNK     0      -2.576   2.472   0.000  0.00  0.00     0.057 C 
BRANCH  29  31
HETATM   31  C   UNK     0      -5.243   2.500   0.000  0.00  0.00     0.242 C 
HETATM   32  O   UNK     0      -5.227   4.040   0.000  0.00  0.00    -0.162 OA
BRANCH  31  33
HETATM   33  O   UNK     0      -6.585   1.744   0.000  0.00  0.00    -0.311 OA
BRANCH  33  34
HETATM   34  C   UNK     0      -7.910   2.528   0.000  0.00  0.00     0.124 C 
HETATM   35  C   UNK     0      -7.894   4.068   0.000  0.00  0.00     0.033 C 
HETATM   36  C   UNK     0      -9.252   1.772   0.000  0.00  0.00     0.033 C 
ENDBRANCH  33  34
ENDBRANCH  31  33
ENDBRANCH  29  31
ENDBRANCH  28  29
ENDBRANCH   1  28
TORSDOF 11
